  
       XFOIL         Version 6.99
  
 Calculated polar for: NACA 23018                                      
  
 1 1 Reynolds number fixed          Mach number fixed         
  
 xtrf =   1.000 (top)        1.000 (bottom)  
 Mach =   0.360     Re =     0.000 e 6     Ncrit =   9.000
  
   alpha    CL        CD       CDp       CM     Top_Xtr  Bot_Xtr
  ------ -------- --------- --------- -------- -------- --------
  -2.000  -0.1182   0.00000  -0.00435  -0.0071   0.0000   0.0000
  -1.000   0.0220   0.00000  -0.00400  -0.0095   0.0000   0.0000
   0.000   0.1620   0.00000  -0.00395  -0.0120   0.0000   0.0000
   1.000   0.3020   0.00000  -0.00414  -0.0145   0.0000   0.0000
   2.000   0.4422   0.00000  -0.00455  -0.0171   0.0000   0.0000
   3.000   0.5829   0.00000  -0.00521  -0.0197   0.0000   0.0000
   4.000   0.7242   0.00000  -0.00615  -0.0222   0.0000   0.0000
   5.000   0.8664   0.00000  -0.00744  -0.0246   0.0000   0.0000
   6.000   1.0096   0.00000  -0.00916  -0.0268   0.0000   0.0000
   7.000   1.1541   0.00000  -0.01144  -0.0289   0.0000   0.0000
   8.000   1.3002   0.00000  -0.01444  -0.0308   0.0000   0.0000
   9.000   1.4481   0.00000  -0.01835  -0.0324   0.0000   0.0000
  10.000   1.5981   0.00000  -0.02341  -0.0337   0.0000   0.0000
  11.000   1.7506   0.00000  -0.02989  -0.0346   0.0000   0.0000
  12.000   1.9060   0.00000  -0.03812  -0.0352   0.0000   0.0000
  13.000   2.0647   0.00000  -0.04850  -0.0353   0.0000   0.0000
  14.000   2.2273   0.00000  -0.06150  -0.0349   0.0000   0.0000
  15.000   2.3944   0.00000  -0.07767  -0.0340   0.0000   0.0000
